Circuit: * C:\Users\dakch\Documents\Princeton Courses\IW\PowerVision\Draft1.asc

Limiting rise time of source v1 to 1e-008
Limiting fall time of source v1 to 1e-008
.OP point found by inspection.

Date: Thu Apr 11 23:04:57 2024
Total elapsed time: 0.057 seconds.

tnom = 27
temp = 27
method = modified trap
totiter = 2118
traniter = 2118
tranpoints = 1060
accept = 1055
rejected = 5
matrix size = 3
fillins = 0
solver = Normal
Matrix Compiler1:       3 opcodes  0.0/[0.0]/0.0
Matrix Compiler2: off  [0.0]/0.1/0.0

