Circuit: * LTspice Test Netlist 1

Direct Newton iteration for .op point succeeded.

Date: Tue Apr 02 00:21:39 2024
Total elapsed time: 0.004 seconds.

tnom = 27
temp = 27
method = trap
totiter = 3
traniter = 0
tranpoints = 0
accept = 0
rejected = 0
matrix size = 4
fillins = 0
solver = Normal
Matrix Compiler1: 118 bytes object code size
Matrix Compiler2: 282 bytes object code size
