Circuit: * Netlist for TestBoost.net

Limiting rise time of source vdrv1 to 5e-007
Limiting fall time of source vdrv1 to 5e-007
Direct Newton iteration for .op point succeeded.

Date: Thu Apr 11 23:28:09 2024
Total elapsed time: 0.148 seconds.

tnom = 27
temp = 27
method = modified trap
totiter = 108694
traniter = 108684
tranpoints = 38232
accept = 29594
rejected = 8638
matrix size = 6
fillins = 0
solver = Normal
Matrix Compiler1:      10 opcodes  0.1/[0.1]/0.1
Matrix Compiler2: 374 bytes object code size  0.1/0.1/[0.1]

